FoamFile
{
    version     2.0;
    format      ascii;
    class       dictionary;
    object      controlDict;
}

application     pimpleFoam;       // latest OpenFOAM
// application     pimpleDyMFoam; // OpenFOAM v1712, OpenFOAM 5.x, or older



startFrom           startTime;

startTime           0;

stopAt              endTime;

endTime             20;

deltaT              0.001;

writeControl        runTime;

writeInterval       0.1;

purgeWrite          0;

writeFormat         ascii;

writePrecision      10;

writeCompression    off;

timeFormat          general;

timePrecision       8;
runTimeModifiable  true;

functions
{
    preCICE_Adapter
    {
        type preciceAdapterFunctionObject;
        libs ("libpreciceAdapterFunctionObject.so");
    }

   forces_object-1
   {
    type forces;
    libs ("libforces.so");

    //writeControl outputTime;
    writeControl   timeStep;
    writetInterval  1;

    enabled true;
 
    //// Patches to sample
    patches ("cylinder" "flap" );

    //// Name of fields
    pName p;
    Uname U;

    //only for incompressible flows
    rho rhoInf;
    rhoInf 1000;

    //// Centre of rotation
    CofR (0 0 0);
    }

///////////////////////////////////////////////////////////////////////////

///////////////////////////////////////////////////////////////////////////

 forceCoeffs_object-1
 {
    type forceCoeffs;
    libs ("libforces.so");

    enabled true;

    patches ("cylinder" "flap");

    pName p;
    Uname U;

    //only for incompressible flows
    rho rhoInf;
    rhoInf 1000;

    //// Dump to file
    log true;

    CofR (0.0 0 0);

    pitchAxis (0 0 1);
    magUInf 2.0;
    lRef 0.1;		// reference lenght for moments!!!
    Aref 0.1;		// reference area for force coefficient computation
			// 1.21622 with deployed high lift devices
			// approx 1 in cruise configuration (stowed high lift devices)
			// This is the projected area using a depth of 1 

    writeControl   timeStep;
    writeInterval  1;

         
    liftDir     (0 1 0);			//-sin AOA, cos AOA, 0 AOA in RAD
    dragDir     (1 0 0);			// cos AOA, sin AOA, 0 AOA in RAD

 }

 forceCoeffs_object-2
 {
    type forceCoeffs;
    libs ("libforces.so");

    enabled true;

    patches ("cylinder");

    pName p;
    Uname U;

    //only for incompressible flows
    rho rhoInf;
    rhoInf 1000;

    //// Dump to file
    log true;

    CofR (0.0 0 0);

    pitchAxis (0 0 1);
    magUInf 2.0;
    lRef 0.1;		// reference lenght for moments!!!
    Aref 0.1;		// reference area for force coefficient computation
			// 1.21622 with deployed high lift devices
			// approx 1 in cruise configuration (stowed high lift devices)
			// This is the projected area using a depth of 1 

    writeControl   timeStep;
    writeInterval  1;

         
    liftDir     (0 1 0);			//-sin AOA, cos AOA, 0 AOA in RAD
    dragDir     (1 0 0);			// cos AOA, sin AOA, 0 AOA in RAD

 }
 
 
}

